#	Name: V36
#	Creating user name:	bogdan
#	Creation time:	14. 02. 2016 14:30

#	Modifying user name:	bogdan
#	Modification time:	14. 02. 2016 14:30

#	Program:	corina 3.60 0028  24.02.2015

@<TRIPOS>MOLECULE
V36
  11   10    0    0    0
SMALL
NO_CHARGES


@<TRIPOS>ATOM
   1 C1            -0.0161     1.3381     0.0094 C.2     
   2 O2             0.0021    -0.0041     0.0020 O.3     
   3 C3             1.3046    -0.6456    -0.0139 C.3     
   4 O4             1.0219     1.9564     0.0028 O.2     
   5 C5            -1.3313     2.0738     0.0196 C.3     
   6 H6             1.8490    -0.3404    -0.9075 H       
   7 H7             1.8660    -0.3499     0.8724 H       
   8 H8             1.1764    -1.7280    -0.0185 H       
   9 H9            -2.1501     1.3543     0.0196 H       
  10 H10           -1.3933     2.6947     0.9133 H       
  11 H11           -1.4018     2.7044    -0.8666 H       
@<TRIPOS>BOND
   1    1    2 1
   2    1    4 2
   3    1    5 1
   4    2    3 1
   5    3    6 1
   6    3    7 1
   7    3    8 1
   8    5    9 1
   9    5   10 1
  10    5   11 1

#	End of record

