#	Name: V39
#	Creating user name:	bogdan
#	Creation time:	14. 02. 2016 14:30

#	Modifying user name:	bogdan
#	Modification time:	14. 02. 2016 14:30

#	Program:	corina 3.60 0028  24.02.2015

@<TRIPOS>MOLECULE
V39
  20   19    0    0    0
SMALL
NO_CHARGES


@<TRIPOS>ATOM
   1 C1            -0.0161     1.3381     0.0094 C.2     
   2 O2             0.0021    -0.0041     0.0020 O.3     
   3 C3             1.3046    -0.6456    -0.0139 C.3     
   4 C4             1.1247    -2.1650    -0.0203 C.3     
   5 C5             2.4972    -2.8409    -0.0370 C.3     
   6 C6             2.3173    -4.3603    -0.0435 C.3     
   7 O7             1.0219     1.9564     0.0028 O.2     
   8 C8            -1.3313     2.0738     0.0196 C.3     
   9 H9             1.8490    -0.3404    -0.9075 H       
  10 H10            1.8660    -0.3499     0.8724 H       
  11 H11            0.5802    -2.4702     0.8733 H       
  12 H12            0.5633    -2.4606    -0.9066 H       
  13 H13            3.0416    -2.5357    -0.9306 H       
  14 H14            3.0586    -2.5453     0.8492 H       
  15 H15            1.7728    -4.6655     0.8501 H       
  16 H16            1.7559    -4.6560    -0.9297 H       
  17 H17            3.2951    -4.8419    -0.0554 H       
  18 H18           -2.1501     1.3543     0.0196 H       
  19 H19           -1.3933     2.6947     0.9133 H       
  20 H20           -1.4018     2.7044    -0.8666 H       
@<TRIPOS>BOND
   1    1    2 1
   2    1    7 2
   3    1    8 1
   4    2    3 1
   5    3    4 1
   6    3    9 1
   7    3   10 1
   8    4    5 1
   9    4   11 1
  10    4   12 1
  11    5    6 1
  12    5   13 1
  13    5   14 1
  14    6   15 1
  15    6   16 1
  16    6   17 1
  17    8   18 1
  18    8   19 1
  19    8   20 1

#	End of record

